LTspice 24.0.12 for Windows
Circuit: * C:\LocalProject\301MotorCar\LTspice hardware\Compsys305.asc
Start Time: Mon Aug 18 13:49:03 2025
solver = Normal
Maximum thread count: 8
tnom = 27
temp = 27
method = modified trap
WARNING: Less than two connections to node gpio.  This node is used by r8.
Early termination of direct N-R iteration.
Direct Newton iteration failed to find .op point.  (Use ".option noopiter" to skip.)
Starting Gmin stepping
Gmin = 10
vernier = 0.5
Gmin = 1.86414
vernier = 0.25
vernier = 0.125
vernier = 0.0625
vernier = 0.03125
vernier = 0.015625
vernier = 0.0078125
vernier = 0.00390625
vernier = 0.00195312
vernier = 0.000976562
vernier = 0.000488281
Gmin = 2.09715
Gmin = 0
Gmin stepping succeeded in finding the operating point.

Total elapsed time: 0.482 seconds.

