LTspice 24.0.12 for Windows
Circuit: * C:\LocalProject\301MotorCar\LTspice hardware\Compsys305.asc
Start Time: Wed Aug 13 14:03:40 2025
solver = Normal
Maximum thread count: 8
tnom = 27
temp = 27
method = modified trap
WARNING: Less than two connections to node gpio.  This node is used by r8.
Early termination of direct N-R iteration.
Direct Newton iteration failed to find .op point.  (Use ".option noopiter" to skip.)
Starting Gmin stepping
Gmin = 10
vernier = 0.5
Gmin = 1.67772
vernier = 0.25
vernier = 0.125
vernier = 0.0625
Gmin = 1.14261
vernier = 0.03125
vernier = 0.015625
vernier = 0.0078125
Gmin = 1.12494
vernier = 0.00390625
vernier = 0.00195312
vernier = 0.000976562
vernier = 0.000488281
Gmin = 1.1248
vernier = 0.000651042
Gmin = 1.12316
vernier = 0.000868055
vernier = 0.000434028
Gmin = 0
Gmin stepping failed

Starting source stepping with srcstepmethod=0
Source Step = 3.0303%
Source Step = 33.3333%
Source Step = 63.6364%
Source Step = 93.9394%
Source stepping succeeded in finding the operating point.

Total elapsed time: 0.646 seconds.

