LTspice 24.0.12 for Windows
Circuit: * C:\LocalProject\301MotorCar\LTspice hardware\Compsys305.asc
Start Time: Wed Aug 13 12:47:33 2025
solver = Normal
Maximum thread count: 8
tnom = 27
temp = 27
method = modified trap
Early termination of direct N-R iteration.
Direct Newton iteration failed to find .op point.  (Use ".option noopiter" to skip.)
Starting Gmin stepping
Gmin = 10
Gmin = 1.07374
vernier = 0.5
vernier = 0.25
vernier = 0.125
vernier = 0.0625
Gmin = 1.1391
vernier = 0.03125
vernier = 0.015625
vernier = 0.0078125
vernier = 0.00390625
Gmin = 1.12806
vernier = 0.00195312
vernier = 0.000976562
Gmin = 1.12449
vernier = 0.00130208
vernier = 0.000651042
vernier = 0.000488281
vernier = 0.000651041
Gmin = 1.12325
vernier = 0.000488281
Gmin = 0
Gmin stepping failed

Starting source stepping with srcstepmethod=0
Source Step = 3.0303%
Source Step = 33.3333%
Source Step = 63.6364%
Source Step = 93.9394%
Source stepping succeeded in finding the operating point.

Total elapsed time: 0.681 seconds.

