LTspice 24.0.12 for Windows
Circuit: * C:\Users\cta10\OneDrive\Desktop\Compsys301\Compsys305.asc
Start Time: Thu Aug  7 15:22:32 2025
c2: both pins shorted together -- ignoring.
solver = Normal
Maximum thread count: 8
tnom = 27
temp = 27
method = modified trap
WARNING: Less than two connections to node v_ref2.5.  This node is used by r8.
Direct Newton iteration for .op point succeeded.
Total elapsed time: 0.159 seconds.

